
 ANSYS Mechanical Enterprise                       


 *------------------------------------------------------------------*
 |                                                                  |
 |   W E L C O M E   T O   T H E   A N S Y S (R)  P R O G R A M     |
 |                                                                  |
 *------------------------------------------------------------------*




 ***************************************************************
 *            ANSYS Release 18.1     LEGAL NOTICES             *
 ***************************************************************
 *                                                             *
 * Copyright 2017 SAS IP, Inc.  All rights reserved.           *
 * Unauthorized use, distribution or duplication is            *
 * prohibited.                                                 *
 *                                                             *
 * Ansys is a registered trademark of ANSYS, Inc. or its       *
 * subsidiaries in the United States or other countries.       *
 * See the ANSYS, Inc. online documentation or the ANSYS, Inc. *
 * documentation CD or online help for the complete Legal      *
 * Notice.                                                     *
 *                                                             *
 ***************************************************************
 *                                                             *
 * THIS ANSYS SOFTWARE PRODUCT AND PROGRAM DOCUMENTATION       *
 * INCLUDE TRADE SECRETS AND CONFIDENTIAL AND PROPRIETARY      *
 * PRODUCTS OF ANSYS, INC., ITS SUBSIDIARIES, OR LICENSORS.    *
 * The software products and documentation are furnished by    *
 * ANSYS, Inc. or its subsidiaries under a software license    *
 * agreement that contains provisions concerning               *
 * non-disclosure, copying, length and nature of use,          *
 * compliance with exporting laws, warranties, disclaimers,    *
 * limitations of liability, and remedies, and other           *
 * provisions.  The software products and documentation may be *
 * used, disclosed, transferred, or copied only in accordance  *
 * with the terms and conditions of that software license      *
 * agreement.                                                  *
 *                                                             *
 * ANSYS, Inc. is a UL registered                              *
 * ISO 9001:2008 company.                                      *
 *                                                             *
 ***************************************************************
 *                                                             *
 * This product is subject to U.S. laws governing export and   *
 * re-export.                                                  *
 *                                                             *
 * For U.S. Government users, except as specifically granted   *
 * by the ANSYS, Inc. software license agreement, the use,     *
 * duplication, or disclosure by the United States Government  *
 * is subject to restrictions stated in the ANSYS, Inc.        *
 * software license agreement and FAR 12.212 (for non-DOD      *
 * licenses).                                                  *
 *                                                             *
 ***************************************************************

 Release 18.1
     
 Point Releases and Patches installed:   
     
 ANSYS, Inc. Products Release 18.1   
 ANSYS Mechanical Products Release 18.1  
 ANSYS Customization Files for User Programmable Features Release 18.1   
 ANSYS Autodyn Release 18.1  
 ANSYS LS-DYNA Release 18.1  
 ANSYS AIM Release 18.1  
 ANSYS CFX (includes ANSYS CFD-Post) Release 18.1
 ANSYS Fluent (includes ANSYS CFD-Post) Release 18.1 
 ANSYS TurboGrid Release 18.1
 ANSYS FENSAP-ICE Release 18.1   
 ANSYS Polyflow (includes ANSYS CFD-Post) Release 18.1   
 ANSYS CFD-Post only Release 18.1
 ANSYS Forte Release 18.1
 ANSYS Chemkin Release 18.1  
 ANSYS ICEM CFD Release 18.1 
 ANSYS Aqwa Release 18.1 
 ANSYS Viewer Release 18.1   
 ANSYS Icepak (includes ANSYS CFD-Post) Release 18.1 
 ANSYS Remote Solve Manager Standalone Services Release 18.1 
 AutoCAD Release 18.1
 ACIS Release 18.1   
 Catia, Version 4 Release 18.1   
 Catia, Version 5 Release 18.1   
 Catia, Version 6 Release 18.1   
 Creo Elements/Direct Modeling Release 18.1  
 Inventor Release 18.1   
 JTOpen Release 18.1 
 NX Release 18.1 
 Parasolid Release 18.1  
 Creo Parametric Release 18.1
 Solid Edge Release 18.1 
 SolidWorks Release 18.1 
 ANSYS, Inc. License Manager Release 18.1


          *****  ANSYS COMMAND LINE ARGUMENTS  *****
  BATCH MODE REQUESTED (-b)    = NOLIST
  INPUT FILE COPY MODE (-c)    = COPY
  DISTRIBUTED MEMORY PARALLEL REQUESTED
       2 PARALLEL PROCESSES REQUESTED WITH SINGLE THREAD PER PROCESS
    TOTAL OF     2 CORES REQUESTED
  MPI OPTION                   = INTELMPI
  INPUT FILE NAME              = F:\Club\SAE\Disc Brakes\_ProjectScratch\Scr641F\dummy.dat
  OUTPUT FILE NAME             = F:\Club\SAE\Disc Brakes\_ProjectScratch\Scr641F\solve.out
  START-UP FILE MODE           = NOREAD
  STOP FILE MODE               = NOREAD

 RELEASE= Release 18.1         BUILD= 18.1      UP20170403   VERSION=WINDOWS x64 
 CURRENT JOBNAME=file0  18:35:21  MAR 22, 2020 CP=      0.422


 PARAMETER _DS_PROGRESS =     999.0000000    

 /INPUT FILE= ds.dat  LINE=       0



 *** NOTE ***                            CP =       0.719   TIME= 18:35:22
 The /CONFIG,NOELDB command is not valid in a Distributed ANSYS          
 solution.  Command is ignored.                                          

 *GET  _WALLSTRT  FROM  ACTI  ITEM=TIME WALL  VALUE=  18.5894444    

 TITLE= 
 Disc Brakes--Static Structural (B5)                                           

  ACT Extensions:
      MechanicalDropTest, 2.0
      f0fd899f-9d88-4f46-8cf1-36bf5c218d65, wbex
  

 SET PARAMETER DIMENSIONS ON  _WB_PROJECTSCRATCH_DIR
  TYPE=STRI  DIMENSIONS=      248        1        1

 PARAMETER _WB_PROJECTSCRATCH_DIR(1) = F:\Club\SAE\Disc Brakes\_ProjectScratch\Scr641F\

 SET PARAMETER DIMENSIONS ON  _WB_SOLVERFILES_DIR
  TYPE=STRI  DIMENSIONS=      248        1        1

 PARAMETER _WB_SOLVERFILES_DIR(1) = F:\Club\SAE\Disc Brakes\Disc Brakes_files\dp0\SYS\MECH\

 SET PARAMETER DIMENSIONS ON  _WB_USERFILES_DIR
  TYPE=STRI  DIMENSIONS=      248        1        1

 PARAMETER _WB_USERFILES_DIR(1) = F:\Club\SAE\Disc Brakes\Disc Brakes_files\user_files\
 --- Data in consistent NMM units. See Solving Units in the help system for more

 MPA UNITS SPECIFIED FOR INTERNAL    
  LENGTH      = MILLIMETERS (mm)
  MASS        = TONNE (Mg)
  TIME        = SECONDS (sec)
  TEMPERATURE = CELSIUS (C)
  TOFFSET     = 273.0
  FORCE       = NEWTON (N)
  HEAT        = MILLIJOULES (mJ)

 INPUT  UNITS ARE ALSO SET TO MPA 

 *** ANSYS - ENGINEERING ANALYSIS SYSTEM  RELEASE Release 18.1     18.1     ***
 DISTRIBUTED ANSYS Mechanical Enterprise                       

 00000000  VERSION=WINDOWS x64   18:35:22  MAR 22, 2020 CP=      0.734

 Disc Brakes--Static Structural (B5)                                           



          ***** ANSYS ANALYSIS DEFINITION (PREP7) *****
 *********** Nodes for the whole assembly ***********
 *********** Nodes for all Remote Points ***********
 *********** Elements for Body 1 "SYS\PartBody" ***********
 *********** Elements for Body 2 "SYS\PartBody" ***********
 *********** Elements for Body 3 "SYS\PartBody" ***********
 *********** Send User Defined Coordinate System(s) ***********
 *********** Set Reference Temperature ***********
 *********** Send Materials ***********
 *********** Create Contact "Contact Region" ***********
             Real Constant Set For Above Contact Is 5 & 4
 *********** Create Contact "Contact Region 2" ***********
             Real Constant Set For Above Contact Is 7 & 6
 *********** Fixed Supports ***********
 *********** Define Force Using Surface Effect Elements ***********
 *********** Define Force Using Surface Effect Elements ***********
 *********** Create Remote Point "Internal Remote Point" ***********
 *********** Construct Moment Using Remote Attachment ***********


 ***** ROUTINE COMPLETED *****  CP =         8.328


 --- Number of total nodes = 159323
 --- Number of contact elements = 15856
 --- Number of spring elements = 0
 --- Number of bearing elements = 0
 --- Number of solid elements = 93154
 --- Number of condensed parts = 0
 --- Number of total elements = 109011

 *GET  _WALLBSOL  FROM  ACTI  ITEM=TIME WALL  VALUE=  18.5905556    
 ****************************************************************************
 *************************    SOLUTION       ********************************
 ****************************************************************************

 *****  ANSYS SOLUTION ROUTINE  *****


 PERFORM A STATIC ANALYSIS
  THIS WILL BE A NEW ANALYSIS

 USE A MAXIMUM OF     1 EQUILIBRIUM ITERATIONS EACH SUBSTEP

 *** WARNING ***                         CP =       8.500   TIME= 18:35:26
 Using 1 iteration per substep may result in unconverged solutions for   
 nonlinear analysis and the program may not indicate divergence in this  
 case.  Check your results.                                              

 DO NOT USE PREDICTOR METHOD FOR  ALL DEGREES OF FREEDOM

 USE PRECONDITIONED CONJUGATE GRADIENT SOLVER
  CONVERGENCE TOLERANCE = 1.00000E-08
  MAXIMUM ITERATION     = NumNode*DofPerNode*  1.0000    

 CONTACT INFORMATION PRINTOUT LEVEL       1

 DO NOT COMBINE ELEMENT MATRIX FILES (.emat) AFTER DISTRIBUTED PARALLEL SOLUTION

 DO NOT COMBINE ELEMENT SAVE DATA FILES (.esav) AFTER DISTRIBUTED PARALLEL SOLUTION

 NLDIAG: Nonlinear diagnostics CONT option is set to ON. 
         Writing frequency : each ITERATION.

 DO NOT SAVE ANY RESTART FILES AT ALL
 ****************************************************
 ******************* SOLVE FOR LS 1 OF 1 ****************

 SELECT       FOR ITEM=TYPE COMPONENT=    
  IN RANGE         8 TO          8 STEP          1

       1338  ELEMENTS (OF     109011  DEFINED) SELECTED BY  ESEL  COMMAND.

 SELECT      ALL NODES HAVING ANY ELEMENT IN ELEMENT SET.

     3220 NODES (OF   159323  DEFINED) SELECTED FROM
     1338 SELECTED ELEMENTS BY NSLE COMMAND.

 SPECIFIED SURFACE LOAD PRES FOR ALL SELECTED ELEMENTS  LKEY =  1   KVAL = 1
      SET ACCORDING TO TABLE PARAMETER = _LOADVARI45X                    

 SPECIFIED SURFACE LOAD PRES FOR ALL SELECTED ELEMENTS  LKEY =  2   KVAL = 1
      SET ACCORDING TO TABLE PARAMETER = _LOADVARI45Y                    

 SPECIFIED SURFACE LOAD PRES FOR ALL SELECTED ELEMENTS  LKEY =  3   KVAL = 1
      SET ACCORDING TO TABLE PARAMETER = _LOADVARI45Z                    

 SELECT       FOR ITEM=TYPE COMPONENT=    
  IN RANGE         9 TO          9 STEP          1

       1340  ELEMENTS (OF     109011  DEFINED) SELECTED BY  ESEL  COMMAND.

 SELECT      ALL NODES HAVING ANY ELEMENT IN ELEMENT SET.

     3224 NODES (OF   159323  DEFINED) SELECTED FROM
     1340 SELECTED ELEMENTS BY NSLE COMMAND.

 SPECIFIED SURFACE LOAD PRES FOR ALL SELECTED ELEMENTS  LKEY =  1   KVAL = 1
      SET ACCORDING TO TABLE PARAMETER = _LOADVARI47X                    

 SPECIFIED SURFACE LOAD PRES FOR ALL SELECTED ELEMENTS  LKEY =  2   KVAL = 1
      SET ACCORDING TO TABLE PARAMETER = _LOADVARI47Y                    

 SPECIFIED SURFACE LOAD PRES FOR ALL SELECTED ELEMENTS  LKEY =  3   KVAL = 1
      SET ACCORDING TO TABLE PARAMETER = _LOADVARI47Z                    

 ALL SELECT   FOR ITEM=NODE COMPONENT=    
  IN RANGE         1 TO   26544257 STEP          1

     159323  NODES (OF     159323  DEFINED) SELECTED BY NSEL  COMMAND.

 ALL SELECT   FOR ITEM=ELEM COMPONENT=    
  IN RANGE         1 TO   19055117 STEP          1

     109011  ELEMENTS (OF     109011  DEFINED) SELECTED BY  ESEL  COMMAND.

 SELECT       FOR ITEM=NODE COMPONENT=    
  IN RANGE  26544257 TO   26544257 STEP          1

          1  NODES (OF     159323  DEFINED) SELECTED BY  NSEL  COMMAND.

 SPECIFIED NODAL LOAD MX   FOR SELECTED NODES         1 TO 26544257 BY        1
  SET ACCORDING TO TABLE PARAMETER = _LOADVARI49X

 SPECIFIED NODAL LOAD MY   FOR SELECTED NODES         1 TO 26544257 BY        1
  SET ACCORDING TO TABLE PARAMETER = _LOADVARI49Y

 SPECIFIED NODAL LOAD MZ   FOR SELECTED NODES         1 TO 26544257 BY        1
  SET ACCORDING TO TABLE PARAMETER = _LOADVARI49Z

 ALL SELECT   FOR ITEM=NODE COMPONENT=    
  IN RANGE         1 TO   26544257 STEP          1

     159323  NODES (OF     159323  DEFINED) SELECTED BY NSEL  COMMAND.

 PRINTOUT RESUMED BY /GOP

 USE       1 SUBSTEPS INITIALLY THIS LOAD STEP FOR ALL  DEGREES OF FREEDOM
 FOR AUTOMATIC TIME STEPPING:
   USE      1 SUBSTEPS AS A MAXIMUM
   USE      1 SUBSTEPS AS A MINIMUM

 TIME=  1.0000    

 ERASE THE CURRENT DATABASE OUTPUT CONTROL TABLE.


 WRITE ALL  ITEMS TO THE DATABASE WITH A FREQUENCY OF NONE
   FOR ALL APPLICABLE ENTITIES

 WRITE NSOL ITEMS TO THE DATABASE WITH A FREQUENCY OF ALL 
   FOR ALL APPLICABLE ENTITIES

 WRITE RSOL ITEMS TO THE DATABASE WITH A FREQUENCY OF ALL 
   FOR ALL APPLICABLE ENTITIES

 WRITE STRS ITEMS TO THE DATABASE WITH A FREQUENCY OF ALL 
   FOR ALL APPLICABLE ENTITIES

 WRITE EPEL ITEMS TO THE DATABASE WITH A FREQUENCY OF ALL 
   FOR ALL APPLICABLE ENTITIES

 WRITE EPPL ITEMS TO THE DATABASE WITH A FREQUENCY OF ALL 
   FOR ALL APPLICABLE ENTITIES

 NONLINEAR STABILIZATION CONTROL:
 KEY=OFF 


 *GET  ANSINTER_  FROM  ACTI  ITEM=INT        VALUE=  0.00000000    

 *IF  ANSINTER_                         ( =   0.00000     )  NE  
      0                                 ( =   0.00000     )  THEN    

 *ENDIF

 *****  ANSYS SOLVE    COMMAND  *****

 *** WARNING ***                         CP =      11.047   TIME= 18:35:28
 Element shape checking is currently inactive.  Issue SHPP,ON or         
 SHPP,WARN to reactivate, if desired.                                    

 *** NOTE ***                            CP =      12.047   TIME= 18:35:28
 The initial memory allocation (-m) has been exceeded.                   
  Supplemental memory allocations are being used.                        

 *** NOTE ***                            CP =      15.344   TIME= 18:35:30
 The model data was checked and warning messages were found.             
  Please review output or errors file ( F:\Club\SAE\Disc                 
 Brakes\_ProjectScratch\Scr641F\file0.err ) for these warning messages.  

 *** SELECTION OF ELEMENT TECHNOLOGIES FOR APPLICABLE ELEMENTS ***
      --- GIVE SUGGESTIONS AND RESET THE KEY OPTIONS ---

 ELEMENT TYPE    1 IS SOLID187. IT IS NOT ASSOCIATED WITH FULLY INCOMPRESSIBLE
 HYPERELASTIC MATERIALS. NO SUGGESTION IS AVAILABLE AND NO RESETTING IS NEEDED.

 ELEMENT TYPE    2 IS SOLID187. IT IS NOT ASSOCIATED WITH FULLY INCOMPRESSIBLE
 HYPERELASTIC MATERIALS. NO SUGGESTION IS AVAILABLE AND NO RESETTING IS NEEDED.

 ELEMENT TYPE    3 IS SOLID187. IT IS NOT ASSOCIATED WITH FULLY INCOMPRESSIBLE
 HYPERELASTIC MATERIALS. NO SUGGESTION IS AVAILABLE AND NO RESETTING IS NEEDED.



 *** ANSYS - ENGINEERING ANALYSIS SYSTEM  RELEASE Release 18.1     18.1     ***
 DISTRIBUTED ANSYS Mechanical Enterprise                       

 00000000  VERSION=WINDOWS x64   18:35:32  MAR 22, 2020 CP=     16.828

 Disc Brakes--Static Structural (B5)                                           



                       S O L U T I O N   O P T I O N S

   PROBLEM DIMENSIONALITY. . . . . . . . . . . . .3-D                  
   DEGREES OF FREEDOM. . . . . . UX   UY   UZ   ROTX ROTY ROTZ
   ANALYSIS TYPE . . . . . . . . . . . . . . . . .STATIC (STEADY-STATE)
   OFFSET TEMPERATURE FROM ABSOLUTE ZERO . . . . .  273.15    
   EQUATION SOLVER OPTION. . . . . . . . . . . . .PCG                
      TOLERANCE. . . . . . . . . . . . . . . . . . 1.00000E-08
   NEWTON-RAPHSON OPTION . . . . . . . . . . . . .PROGRAM CHOSEN   
   GLOBALLY ASSEMBLED MATRIX . . . . . . . . . . .SYMMETRIC  

 *** WARNING ***                         CP =      18.703   TIME= 18:35:34
 Material number 8 (used by element 19049761 ) should normally have at   
 least one MP or one TB type command associated with it.  Output of      
 energy by material may not be available.                                

 *** NOTE ***                            CP =      21.938   TIME= 18:35:37
 The step data was checked and warning messages were found.              
  Please review output or errors file ( F:\Club\SAE\Disc                 
 Brakes\_ProjectScratch\Scr641F\file0.err ) for these warning messages.  

 *** NOTE ***                            CP =      21.938   TIME= 18:35:37
 This nonlinear analysis defaults to using the full Newton-Raphson       
 solution procedure.  This can be modified using the NROPT command.      

 *** NOTE ***                            CP =      21.938   TIME= 18:35:37
 The conditions for direct assembly have been met.  No .emat or .erot    
 files will be produced.                                                 

 *** NOTE ***                            CP =      24.625   TIME= 18:35:39
 Internal nodes from 26544258 to 26544258 are created.                   
 1 internal nodes are used for handling degrees of freedom on pilot      
 nodes of rigid target surfaces.                                         

 *** NOTE ***                            CP =      26.812   TIME= 18:35:42
 Internal nodes from 26544258 to 26544258 are created.                   
 1 internal nodes are used for handling degrees of freedom on pilot      
 nodes of rigid target surfaces.                                         

 *** NOTE ***                            CP =      29.672   TIME= 18:35:44
 Symmetric Deformable- deformable contact pair identified by real        
 constant set 4 and contact element type 4 has been set up.  The         
 companion pair has real constant set ID 5.  Both pairs should have the  
 same behavior.                                                          
 ANSYS will deactivate the current pair and keep its companion pair,     
 resulting in asymmetric contact.                                        
 Contact algorithm: Augmented Lagrange method
 Contact detection at: Gauss integration point
 Contact stiffness factor FKN                  10.000    
 The resulting initial contact stiffness      0.12902E+08
 Default penetration tolerance factor FTOLN   0.10000    
 The resulting penetration tolerance          0.30815    
 Default opening contact stiffness OPSF will be used.
 Default tangent stiffness factor FKT          1.0000    
 Default elastic slip factor SLTOL            0.50000E-02
 The resulting elastic slip tolerance         0.23343E-01
 Update contact stiffness at each iteration
 Default Max. friction stress TAUMAX          0.10000E+21
 Average contact surface length                4.6686    
 Average contact pair depth                    3.0815    
 Default pinball region factor PINB           0.25000    
 The resulting pinball region                 0.77037    
 Initial penetration/gap is excluded.
 Bonded contact (always) is defined.

 *** NOTE ***                            CP =      29.672   TIME= 18:35:44
 Max.  Initial penetration 1.311853379E-04 was detected between contact  
 element 19040748 and target element 19044022.                           
 You may move entire target surface by : x= 1.750578847E-05, y=          
 -1.300120563E-04, z= -7.406820257E-08,to reduce initial penetration.    
 ****************************************
  

 *** NOTE ***                            CP =      29.672   TIME= 18:35:44
 Symmetric Deformable- deformable contact pair identified by real        
 constant set 5 and contact element type 4 has been set up.  The         
 companion pair has real constant set ID 4.  Both pairs should have the  
 same behavior.                                                          
 ANSYS will keep the current pair and deactivate its companion pair,     
 resulting in asymmetric contact.                                        
 Contact algorithm: Augmented Lagrange method
 Contact detection at: Gauss integration point
 Contact stiffness factor FKN                  10.000    
 The resulting initial contact stiffness      0.12902E+08
 Default penetration tolerance factor FTOLN   0.10000    
 The resulting penetration tolerance          0.31004    
 Default opening contact stiffness OPSF will be used.
 Default tangent stiffness factor FKT          1.0000    
 Default elastic slip factor SLTOL            0.50000E-02
 The resulting elastic slip tolerance         0.23102E-01
 Update contact stiffness at each iteration
 Default Max. friction stress TAUMAX          0.10000E+21
 Average contact surface length                4.6205    
 Average contact pair depth                    3.1004    
 Default pinball region factor PINB           0.25000    
 The resulting pinball region                 0.77510    
 Initial penetration/gap is excluded.
 Bonded contact (always) is defined.

 *** NOTE ***                            CP =      29.672   TIME= 18:35:44
 Max.  Initial penetration 3.110232435E-04 was detected between contact  
 element 19042498 and target element 19039958.                           
 You may move entire target surface by : x= -4.164303621E-05, y=         
 3.082227347E-04, z= 2.476739078E-07,to reduce initial penetration.      
 ****************************************
  

 *** NOTE ***                            CP =      29.672   TIME= 18:35:44
 Symmetric Deformable- deformable contact pair identified by real        
 constant set 6 and contact element type 6 has been set up.  The         
 companion pair has real constant set ID 7.  Both pairs should have the  
 same behavior.                                                          
 ANSYS will deactivate the current pair and keep its companion pair,     
 resulting in asymmetric contact.                                        
 Contact algorithm: Augmented Lagrange method
 Contact detection at: Gauss integration point
 Contact stiffness factor FKN                  10.000    
 The resulting initial contact stiffness      0.10894E+08
 Default penetration tolerance factor FTOLN   0.10000    
 The resulting penetration tolerance          0.36718    
 Default opening contact stiffness OPSF will be used.
 Default tangent stiffness factor FKT          1.0000    
 Default elastic slip factor SLTOL            0.50000E-02
 The resulting elastic slip tolerance         0.25791E-01
 Update contact stiffness at each iteration
 Default Max. friction stress TAUMAX          0.10000E+21
 Average contact surface length                5.1581    
 Average contact pair depth                    3.6718    
 Default pinball region factor PINB           0.25000    
 The resulting pinball region                 0.91796    
 Initial penetration/gap is excluded.
 Bonded contact (always) is defined.

 *** NOTE ***                            CP =      29.672   TIME= 18:35:44
 Max.  Initial penetration 2.165479815E-06 was detected between contact  
 element 19046630 and target element 19048858.                           
 ****************************************
  

 *** NOTE ***                            CP =      29.672   TIME= 18:35:44
 Symmetric Deformable- deformable contact pair identified by real        
 constant set 7 and contact element type 6 has been set up.  The         
 companion pair has real constant set ID 6.  Both pairs should have the  
 same behavior.                                                          
 ANSYS will keep the current pair and deactivate its companion pair,     
 resulting in asymmetric contact.                                        
 Contact algorithm: Augmented Lagrange method
 Contact detection at: Gauss integration point
 Contact stiffness factor FKN                  10.000    
 The resulting initial contact stiffness      0.10894E+08
 Default penetration tolerance factor FTOLN   0.10000    
 The resulting penetration tolerance          0.31318    
 Default opening contact stiffness OPSF will be used.
 Default tangent stiffness factor FKT          1.0000    
 Default elastic slip factor SLTOL            0.50000E-02
 The resulting elastic slip tolerance         0.26607E-01
 Update contact stiffness at each iteration
 Default Max. friction stress TAUMAX          0.10000E+21
 Average contact surface length                5.3213    
 Average contact pair depth                    3.1318    
 Default pinball region factor PINB           0.25000    
 The resulting pinball region                 0.78295    
 Initial penetration/gap is excluded.
 Bonded contact (always) is defined.

 *** NOTE ***                            CP =      29.672   TIME= 18:35:44
 Max.  Initial penetration 2.442240896E-06 was detected between contact  
 element 19047778 and target element 19045470.                           
 ****************************************
  

 *** NOTE ***                            CP =      29.672   TIME= 18:35:44
 Force-distributed-surface identified by real constant set 10 and        
 contact element type 10 has been set up.  The pilot node 26544257 is    
 used to apply the force.  Internal MPC will be built.                   
 The used degrees of freedom set is  UX   UY   UZ   ROTX ROTY ROTZ
 Please verify constraints (including rotational degrees of freedom)
  on the pilot node by yourself.
 ****************************************
  
  
  

 *** NOTE ***                            CP =      32.094   TIME= 18:35:46
 Internal nodes from 26544258 to 26544258 are created.                   
 1 internal nodes are used for handling degrees of freedom on pilot      
 nodes of rigid target surfaces.                                         

  
  
     D I S T R I B U T E D   D O M A I N   D E C O M P O S E R
  
  ...Number of elements: 109011
  ...Number of nodes:    159324
  ...Decompose to 2 CPU domains
  ...Element load balance ratio =     1.025


                      L O A D   S T E P   O P T I O N S

   LOAD STEP NUMBER. . . . . . . . . . . . . . . .     1
   TIME AT END OF THE LOAD STEP. . . . . . . . . .  1.0000    
   AUTOMATIC TIME STEPPING . . . . . . . . . . . .    ON
      INITIAL NUMBER OF SUBSTEPS . . . . . . . . .     1
      MAXIMUM NUMBER OF SUBSTEPS . . . . . . . . .     1
      MINIMUM NUMBER OF SUBSTEPS . . . . . . . . .     1
   MAXIMUM NUMBER OF EQUILIBRIUM ITERATIONS. . . .     1
   STEP CHANGE BOUNDARY CONDITIONS . . . . . . . .    NO
   TERMINATE ANALYSIS IF NOT CONVERGED . . . . . .YES (EXIT)  
   CONVERGENCE CONTROLS. . . . . . . . . . . . . .USE DEFAULTS
   PRINT OUTPUT CONTROLS . . . . . . . . . . . . .NO PRINTOUT
   DATABASE OUTPUT CONTROLS
      ITEM     FREQUENCY   COMPONENT
       ALL       NONE               
      NSOL        ALL               
      RSOL        ALL               
      STRS        ALL               
      EPEL        ALL               
      EPPL        ALL               


 SOLUTION MONITORING INFO IS WRITTEN TO FILE= file.mntr                                                                                                                                                                                                                                                           

 *** NOTE ***                            CP =      44.641   TIME= 18:35:56
 Symmetric Deformable- deformable contact pair identified by real        
 constant set 4 and contact element type 4 has been set up.  The         
 companion pair has real constant set ID 5.  Both pairs should have the  
 same behavior.                                                          
 ANSYS will keep the current pair and deactivate its companion pair,     
 resulting in asymmetric contact.                                        
 Contact algorithm: Augmented Lagrange method
 Contact detection at: Gauss integration point
 Contact stiffness factor FKN                  10.000    
 The resulting initial contact stiffness      0.12902E+08
 Default penetration tolerance factor FTOLN   0.10000    
 The resulting penetration tolerance          0.30815    
 Default opening contact stiffness OPSF will be used.
 Default tangent stiffness factor FKT          1.0000    
 Default elastic slip factor SLTOL            0.50000E-02
 The resulting elastic slip tolerance         0.23343E-01
 Update contact stiffness at each iteration
 Default Max. friction stress TAUMAX          0.10000E+21
 Average contact surface length                4.6686    
 Average contact pair depth                    3.0815    
 Default pinball region factor PINB           0.25000    
 The resulting pinball region                 0.77037    
 Initial penetration/gap is excluded.
 Bonded contact (always) is defined.

 *** NOTE ***                            CP =      44.641   TIME= 18:35:56
 Max.  Initial penetration 1.311853379E-04 was detected between contact  
 element 19040748 and target element 19044022.                           
 You may move entire target surface by : x= 1.750578847E-05, y=          
 -1.300120563E-04, z= -7.406820257E-08,to reduce initial penetration.    
 ****************************************
  

 *** NOTE ***                            CP =      44.641   TIME= 18:35:56
 Symmetric Deformable- deformable contact pair identified by real        
 constant set 5 and contact element type 4 has been set up.  The         
 companion pair has real constant set ID 4.  Both pairs should have the  
 same behavior.                                                          
 ANSYS will deactivate the current pair and keep its companion pair,     
 resulting in asymmetric contact.                                        
 Contact algorithm: Augmented Lagrange method
 Contact detection at: Gauss integration point
 Contact stiffness factor FKN                  10.000    
 The resulting initial contact stiffness      0.12902E+08
 Default penetration tolerance factor FTOLN   0.10000    
 The resulting penetration tolerance          0.31004    
 Default opening contact stiffness OPSF will be used.
 Default tangent stiffness factor FKT          1.0000    
 Default elastic slip factor SLTOL            0.50000E-02
 The resulting elastic slip tolerance         0.23102E-01
 Update contact stiffness at each iteration
 Default Max. friction stress TAUMAX          0.10000E+21
 Average contact surface length                4.6205    
 Average contact pair depth                    3.1004    
 Default pinball region factor PINB           0.25000    
 The resulting pinball region                 0.77510    
 Initial penetration/gap is excluded.
 Bonded contact (always) is defined.

 *** NOTE ***                            CP =      44.641   TIME= 18:35:56
 Max.  Initial penetration 3.110232435E-04 was detected between contact  
 element 19042498 and target element 19039958.                           
 You may move entire target surface by : x= -4.164303621E-05, y=         
 3.082227347E-04, z= 2.476739078E-07,to reduce initial penetration.      
 ****************************************
  

 *** NOTE ***                            CP =      44.641   TIME= 18:35:56
 Symmetric Deformable- deformable contact pair identified by real        
 constant set 6 and contact element type 6 has been set up.  The         
 companion pair has real constant set ID 7.  Both pairs should have the  
 same behavior.                                                          
 ANSYS will deactivate the current pair and keep its companion pair,     
 resulting in asymmetric contact.                                        
 Contact algorithm: Augmented Lagrange method
 Contact detection at: Gauss integration point
 Contact stiffness factor FKN                  10.000    
 The resulting initial contact stiffness      0.10894E+08
 Default penetration tolerance factor FTOLN   0.10000    
 The resulting penetration tolerance          0.36718    
 Default opening contact stiffness OPSF will be used.
 Default tangent stiffness factor FKT          1.0000    
 Default elastic slip factor SLTOL            0.50000E-02
 The resulting elastic slip tolerance         0.25791E-01
 Update contact stiffness at each iteration
 Default Max. friction stress TAUMAX          0.10000E+21
 Average contact surface length                5.1581    
 Average contact pair depth                    3.6718    
 Default pinball region factor PINB           0.25000    
 The resulting pinball region                 0.91796    
 Initial penetration/gap is excluded.
 Bonded contact (always) is defined.

 *** NOTE ***                            CP =      44.641   TIME= 18:35:56
 Max.  Initial penetration 2.165479815E-06 was detected between contact  
 element 19046630 and target element 19048858.                           
 ****************************************
  

 *** NOTE ***                            CP =      44.641   TIME= 18:35:56
 Symmetric Deformable- deformable contact pair identified by real        
 constant set 7 and contact element type 6 has been set up.  The         
 companion pair has real constant set ID 6.  Both pairs should have the  
 same behavior.                                                          
 ANSYS will keep the current pair and deactivate its companion pair,     
 resulting in asymmetric contact.                                        
 Contact algorithm: Augmented Lagrange method
 Contact detection at: Gauss integration point
 Contact stiffness factor FKN                  10.000    
 The resulting initial contact stiffness      0.10894E+08
 Default penetration tolerance factor FTOLN   0.10000    
 The resulting penetration tolerance          0.31318    
 Default opening contact stiffness OPSF will be used.
 Default tangent stiffness factor FKT          1.0000    
 Default elastic slip factor SLTOL            0.50000E-02
 The resulting elastic slip tolerance         0.26607E-01
 Update contact stiffness at each iteration
 Default Max. friction stress TAUMAX          0.10000E+21
 Average contact surface length                5.3213    
 Average contact pair depth                    3.1318    
 Default pinball region factor PINB           0.25000    
 The resulting pinball region                 0.78295    
 Initial penetration/gap is excluded.
 Bonded contact (always) is defined.

 *** NOTE ***                            CP =      44.641   TIME= 18:35:56
 Max.  Initial penetration 2.442240896E-06 was detected between contact  
 element 19047778 and target element 19045470.                           
 ****************************************
  

 *** NOTE ***                            CP =      44.641   TIME= 18:35:56
 Force-distributed-surface identified by real constant set 10 and        
 contact element type 10 has been set up.  The pilot node 26544257 is    
 used to apply the force.  Internal MPC will be built.                   
 The used degrees of freedom set is  UX   UY   UZ   ROTX ROTY ROTZ
 Please verify constraints (including rotational degrees of freedom)
  on the pilot node by yourself.
 ****************************************
  


 *** WARNING ***                         CP =      44.719   TIME= 18:35:56
 Too many nodes 6446 are included in the force-distributed-surface       
 constraint identified by real constant set 10.  This may greatly        
 affect solver performance due to large wave fronts and memory           
 consumption.  Also check results carefully and consider solving with a  
 different unit system.                                                  

 *** NOTE ***                            CP =      51.516   TIME= 18:36:03
 The PCG solver has automatically set the level of difficulty for this   
 model to 2.                                                             
  
 The FEA model contains 0 external CE equations and 6 internal CE        
 equations.                                                              
  
 *************************************************
  SUMMARY FOR CONTACT PAIR IDENTIFIED BY REAL CONSTANT SET           4

 *** NOTE ***                            CP =      65.125   TIME= 18:36:17
 Contact pair is inactive.                                               
  
 *************************************************
  SUMMARY FOR CONTACT PAIR IDENTIFIED BY REAL CONSTANT SET           5
 Max.  Penetration of -6.365529536E-14 has been detected between contact 
 element 19043638 and target element 19040648.                           
  
 Max.  Geometrical gap of 1.31540271E-04 has been detected between       
 contact element 19042498 and target element 19039958.                   
  
 Max.  Geometrical penetration of -3.110232435E-04 has been detected     
 between contact element 19042498 and target element 19039958.           
 For total 1524 contact elements, there are 1524 elements are in         
 contact.                                                                
 There are 1524 elements are in sticking.                                
 Contacting area 13617.0116.                                             
 Max.  Pinball distance 0.775102669.                                     
 One of the contact searching regions contains at least 18 target        
 elements.                                                               
 Max.  Pressure/force 8.212498537E-07.                                   
 Max.  Normal stiffness 12901516.7.                                      
 Min.  Normal stiffness 12901516.7.                                      
 Max.  Tangential stiffness 6492834.88.                                  
 Min.  Tangential stiffness 6492834.88.                                  
 *************************************************
  
 *************************************************
  SUMMARY FOR CONTACT PAIR IDENTIFIED BY REAL CONSTANT SET           6

 *** NOTE ***                            CP =      65.125   TIME= 18:36:17
 Contact pair is inactive.                                               
  
 *************************************************
  SUMMARY FOR CONTACT PAIR IDENTIFIED BY REAL CONSTANT SET           7
 Max.  Penetration of -6.701627517E-14 has been detected between contact 
 element 19047998 and target element 19045706.                           
  
 Max.  Geometrical gap of 1.426344207E-06 has been detected between      
 contact element 19047778 and target element 19045470.                   
  
 Max.  Geometrical penetration of -2.442240896E-06 has been detected     
 between contact element 19047778 and target element 19045470.           
 For total 1080 contact elements, there are 1080 elements are in         
 contact.                                                                
 There are 1080 elements are in sticking.                                
 Contacting area 12543.3985.                                             
 Max.  Pinball distance 0.782951788.                                     
 One of the contact searching regions contains at least 25 target        
 elements.                                                               
 Max.  Pressure/force 7.300580003E-07.                                   
 Max.  Normal stiffness 10893741.8.                                      
 Min.  Normal stiffness 10893741.8.                                      
 Max.  Tangential stiffness 4808525.31.                                  
 Min.  Tangential stiffness 4808525.31.                                  
 *************************************************


                         ***********  PRECISE MASS SUMMARY  ***********

   TOTAL RIGID BODY MASS MATRIX ABOUT ORIGIN
               Translational mass               |   Coupled translational/rotational mass
        0.88144E-02    0.0000        0.0000     |     0.0000       0.34228      -0.82419E-04
         0.0000       0.88144E-02    0.0000     |   -0.34228        0.0000       0.23568E-05
         0.0000        0.0000       0.88144E-02 |    0.82419E-04  -0.23568E-05    0.0000    
     ------------------------------------------ | ------------------------------------------
                                                |         Rotational mass (inertia)
                                                |     62.288      -0.62177E-04  -0.10614E-03
                                                |   -0.62177E-04    62.278      -0.36167E-02
                                                |   -0.10614E-03  -0.36167E-02    94.336    

   TOTAL MASS = 0.88144E-02
     The mass principal axes coincide with the global Cartesian axes

   CENTER OF MASS (X,Y,Z)=   0.26738E-03   0.93505E-02    38.832    

   TOTAL INERTIA ABOUT CENTER OF MASS
         48.996      -0.62155E-04  -0.14618E-04
       -0.62155E-04    48.987      -0.41621E-03
       -0.14618E-04  -0.41621E-03    94.336    
     The inertia principal axes coincide with the global Cartesian axes


  *** MASS SUMMARY BY ELEMENT TYPE ***

  TYPE      MASS
     1  0.134190E-02
     2  0.535351E-02
     3  0.211902E-02

 Range of element maximum matrix coefficients in global coordinates
 Maximum = 58423247.5 at element 8813.                                   
 Minimum = 245620.562 at element 14222.                                  

   *** ELEMENT MATRIX FORMULATION TIMES
     TYPE    NUMBER   ENAME      TOTAL CP  AVE CP

        1     17293  SOLID187      2.781   0.000161
        2     52014  SOLID187      8.125   0.000156
        3     23847  SOLID187      3.484   0.000146
        4      3010  CONTA174      0.453   0.000151
        5      3010  TARGE170      0.062   0.000021
        6      2240  CONTA174      0.422   0.000188
        7      2240  TARGE170      0.141   0.000063
        8      1338  SURF154       0.094   0.000070
        9      1340  SURF154       0.125   0.000093
       10      2678  CONTA174      0.141   0.000053
       11         1  TARGE170      0.000   0.000000
 Time at end of element matrix formulation CP = 65.140625.               
     FORCE CONVERGENCE VALUE  =   22.92      CRITERION=  0.1169    
 curEqn=  13657  totEqn=  13657 Job CP sec=     66.516
      Factor Done= 100% Factor Wall sec=      0.261 rate=    5511.7 Mflops
 Iteration=    10 Ratio=  9.601866E-02 Limit=  1.000000E-08 Wall=     0.5
 Iteration=    60 Ratio=  7.976622E-04 Limit=  1.000000E-08 Wall=     3.5
 Iteration=   170 Ratio=  2.589659E-06 Limit=  1.000000E-08 Wall=     9.9

 DISTRIBUTED PCG SOLVER SOLUTION CONVERGED

 DISTRIBUTED PCG SOLVER SOLUTION STATISTICS

   NUMBER OF DOMAINS   =        1211
   NUMBER OF ITERATIONS=         279
   NUMBER OF EQUATIONS =      477978
   LEVEL OF CONVERGENCE=           1
   CALCULATED NORM     = 0.93794E-08
   SPECIFIED TOLERANCE = 0.10000E-07
   TOTAL CPU TIME (sec)=       17.44
   TOTAL WALL TIME(sec)=       17.68
   TOTAL MEMORY (GB)   =        0.12

     DISP CONVERGENCE VALUE   =  0.2550E-02  CRITERION=  0.1301E-03

   *** ELEMENT RESULT CALCULATION TIMES
     TYPE    NUMBER   ENAME      TOTAL CP  AVE CP

        1     17293  SOLID187      1.500   0.000087
        2     52014  SOLID187      4.172   0.000080
        3     23847  SOLID187      1.875   0.000079
        4      3010  CONTA174      0.109   0.000036
        6      2240  CONTA174      0.109   0.000049
        8      1338  SURF154       0.094   0.000070
        9      1340  SURF154       0.078   0.000058
       10      2678  CONTA174      0.031   0.000012

   *** NODAL LOAD CALCULATION TIMES
     TYPE    NUMBER   ENAME      TOTAL CP  AVE CP

        1     17293  SOLID187      0.125   0.000007
        2     52014  SOLID187      0.141   0.000003
        3     23847  SOLID187      0.078   0.000003
        4      3010  CONTA174      0.000   0.000000
        6      2240  CONTA174      0.016   0.000007
        8      1338  SURF154       0.016   0.000012
        9      1340  SURF154       0.016   0.000012
       10      2678  CONTA174      0.000   0.000000
 *** LOAD STEP     1   SUBSTEP     1  COMPLETED.    CUM ITER =      1
 *** TIME =   1.00000         TIME INC =   1.00000      NEW TRIANG MATRIX


 *** ANSYS BINARY FILE STATISTICS
  BUFFER SIZE USED= 16384
      170.125 MB WRITTEN ON ELEMENT SAVED DATA FILE: file0.esav
       39.125 MB WRITTEN ON RESULTS FILE: file0.rst

 Memory resident data base increased from      1024 MB to      2048 MB.
 *************** Write FE CONNECTORS *********

 WRITE OUT CONSTRAINT EQUATIONS TO FILE= file.ce                                                                                                                                                                                                                                                             
 ****************************************************
 *************** FINISHED SOLVE FOR LS 1 *************

 *GET  _WALLASOL  FROM  ACTI  ITEM=TIME WALL  VALUE=  18.6127778    

 PRINTOUT RESUMED BY /GOP

 *GET  _PCGITER  FROM  ACTI  ITEM=SOLU CGIT  VALUE=  279.000000    

 FINISH SOLUTION PROCESSING


 ***** ROUTINE COMPLETED *****  CP =       100.109



 *** ANSYS - ENGINEERING ANALYSIS SYSTEM  RELEASE Release 18.1     18.1     ***
 DISTRIBUTED ANSYS Mechanical Enterprise                       

 00000000  VERSION=WINDOWS x64   18:37:00  MAR 22, 2020 CP=    100.219

 Disc Brakes--Static Structural (B5)                                           



          ***** ANSYS RESULTS INTERPRETATION (POST1) *****

 *** NOTE ***                            CP =     100.750   TIME= 18:37:01
 Reading results into the database (SET command) will update the current 
 displacement and force boundary conditions in the database with the     
 values from the results file for that load set.  Note that any          
 subsequent solutions will use these values unless action is taken to    
 either SAVE the current values or not overwrite them (/EXIT,NOSAVE).    

 Set Encoding of XML File to:ISO-8859-1

 Set Output of XML File to:
     PARM,     ,     ,     ,     ,     ,     ,     ,     ,     ,     ,     ,
         ,     ,     ,     ,     ,     ,     ,

 DATABASE WRITTEN ON FILE  parm.xml                                                                                                                                                                                                                                                            

 EXIT THE ANSYS POST1 DATABASE PROCESSOR


 ***** ROUTINE COMPLETED *****  CP =       100.750



 PRINTOUT RESUMED BY /GOP

 *GET  _WALLDONE  FROM  ACTI  ITEM=TIME WALL  VALUE=  18.6169444    

 PARAMETER _PREPTIME =     4.000000000    

 PARAMETER _SOLVTIME =     80.00000000    

 PARAMETER _POSTTIME =     15.00000000    

 PARAMETER _TOTALTIM =     99.00000000    

 EXIT ANSYS WITHOUT SAVING DATABASE


 NUMBER OF WARNING MESSAGES ENCOUNTERED=          4
 NUMBER OF ERROR   MESSAGES ENCOUNTERED=          0

+--------- D I S T R I B U T E D   A N S Y S   S T A T I S T I C S ------------+

Release: Release 18.1       Build: 18.1       Update: UP20170403   Platform: WINDOWS x64 
Date Run: 03/22/2020   Time: 18:37     Process ID: 13068
Operating System: Windows 10  (Build: 18362)

Processor Model: Intel(R) Core(TM) i5-8250U CPU @ 1.60GHz

Compiler: Intel(R) FORTRAN Compiler Version 15.0.7  (Build: 20160518)
          Intel(R) C/C++ Compiler Version 15.0.7  (Build: 20160518)
          Intel(R) Math Kernel Library Version 11.3.3 Product Build 20160413

Number of machines requested            :    1
Total number of cores available         :    8
Number of physical cores available      :    4
Number of processes requested           :    2
Number of threads per process requested :    1
Total number of cores requested         :    2 (Distributed Memory Parallel)               
MPI Type: INTELMPI
MPI Version: Intel(R) MPI Library 5.1.3 for Windows* OS


GPU Acceleration: Not Requested

Job Name: file0
Input File: dummy.dat

  Core                Machine Name   Working Directory
  ----------------------------------------------------
     0          Eshwar_Sai_Srinvas   F:\Club\SAE\Disc Brakes\_ProjectScratch\Scr641F
     1          Eshwar_Sai_Srinvas   F:\Club\SAE\Disc Brakes\_ProjectScratch\Scr641F
 
Latency time from master to core    1 =    6.688 microseconds
 
Communication speed from master to core    1 =  2289.95 MB/sec

Total CPU time for main thread                    :       90.5 seconds
Total CPU time summed for all threads             :      101.2 seconds

Elapsed time spent pre-processing model (/PREP7)  :        4.6 seconds
Elapsed time spent solution - preprocessing       :       25.9 seconds
Elapsed time spent computing solution             :       46.0 seconds
Elapsed time spent solution - postprocessing      :       14.2 seconds
Elapsed time spent post-processing model (/POST1) :        0.4 seconds
 
Equation solver used                              :            PCG (symmetric)
Equation solver computational rate                :     3995.8 Mflops

Maximum total memory used                         :     6357.0 MB
Maximum total memory allocated                    :    10151.0 MB
Total physical memory available                   :          8 GB

+------ E N D   D I S T R I B U T E D   A N S Y S   S T A T I S T I C S -------+


 *---------------------------------------------------------------------------*
 |                                                                           |
 |                       DISTRIBUTED ANSYS RUN COMPLETED                     |
 |                                                                           |
 |---------------------------------------------------------------------------|
 |                                                                           |
 | Ansys Release 18.1          Build 18.1         UP20170403     WINDOWS x64 |
 |                                                                           |
 |---------------------------------------------------------------------------|
 |                                                                           |
 | Database Requested(-db)  1024 MB    Scratch Memory Requested      1024 MB |
 | Maximum Database Used    1034 MB    Maximum Scratch Memory Used   3611 MB |
 |                                                                           |
 |---------------------------------------------------------------------------|
 |                                                                           |
 |        CP Time      (sec) =        101.219       Time  =  18:37:01        |
 |        Elapsed Time (sec) =        102.000       Date  =  03/22/2020      |
 |                                                                           |
 *---------------------------------------------------------------------------*
